data_image0
_chemical_formula_structural       Mg4Al8O16
_chemical_formula_sum              "Mg4 Al8 O16"
_cell_length_a       8.441695001441476
_cell_length_b       9.34615600000214
_cell_length_c       2.688366708391733
_cell_angle_alpha    90.00000964986653
_cell_angle_beta     71.43001037489564
_cell_angle_gamma    89.99999452573425

_space_group_name_H-M_alt    "P 1"
_space_group_IT_number       1

loop_
  _space_group_symop_operation_xyz
  'x, y, z'

loop_
  _atom_site_type_symbol
  _atom_site_label
  _atom_site_symmetry_multiplicity
  _atom_site_fract_x
  _atom_site_fract_y
  _atom_site_fract_z
  _atom_site_occupancy
  Mg  Mg1       1.0  0.7547090000000001  0.21234800000000004  0.9680009999999998  1.0000
  Mg  Mg2       1.0  0.751236  0.7123480000000001  0.47147399999999995  1.0000
  Mg  Mg3       1.0  0.254709  0.001957  0.46800099999999994  1.0000
  Mg  Mg4       1.0  0.251236  0.501957  0.971474  1.0000
  Al  Al1       1.0  0.426134  0.24133600000000005  0.296576  1.0000
  Al  Al2       1.0  0.08111000000000002  0.24368600000000004  0.14159999999999998  1.0000
  Al  Al3       1.0  0.4248350000000001  0.7436860000000002  0.29787499999999995  1.0000
  Al  Al4       1.0  0.58111  0.9706190000000002  0.6416  1.0000
  Al  Al5       1.0  0.07981200000000001  0.741336  0.142898  1.0000
  Al  Al6       1.0  0.926134  0.9729690000000001  0.7965759999999998  1.0000
  Al  Al7       1.0  0.579812  0.47296900000000003  0.6428979999999999  1.0000
  Al  Al8       1.0  0.9248350000000001  0.470619  0.7978749999999999  1.0000
  O   O1        1.0  0.583852  0.284263  0.638858  1.0000
  O   O2        1.0  0.627723  0.8383490000000001  0.09498699999999999  1.0000
  O   O3        1.0  0.08385200000000001  0.9300420000000003  0.138858  1.0000
  O   O4        1.0  0.216401  0.6858590000000001  0.506309  1.0000
  O   O5        1.0  0.127723  0.37595700000000004  0.5949869999999999  1.0000
  O   O6        1.0  0.42209300000000005  0.430042  0.300617  1.0000
  O   O7        1.0  0.016791000000000014  0.141068  0.7059189999999999  1.0000
  O   O8        1.0  0.289544  0.18585900000000002  0.9331659999999999  1.0000
  O   O9        1.0  0.9891540000000001  0.5732370000000001  0.23355599999999999  1.0000
  O   O10       1.0  0.789544  0.02844600000000001  0.433166  1.0000
  O   O11       1.0  0.878222  0.33834900000000007  0.344488  1.0000
  O   O12       1.0  0.9220930000000002  0.7842630000000002  0.8006169999999999  1.0000
  O   O13       1.0  0.516791  0.073237  0.20591899999999996  1.0000
  O   O14       1.0  0.7164010000000001  0.5284460000000001  0.006309  1.0000
  O   O15       1.0  0.48915400000000003  0.6410680000000001  0.7335559999999999  1.0000
  O   O16       1.0  0.37822200000000006  0.875957  0.8444879999999998  1.0000
